*SPEF "IEEE 1481-1998"
*DESIGN "ADDER"
*DATE "Tue Jun  9 14:55:44 2020"
*VENDOR "Cadence Design Systems, Inc."
*PROGRAM "Innovus"
*VERSION "17.11-s080_1"
*DESIGN_FLOW "COUPLING C" "PIN_CAP NONE" "NAME_SCOPE LOCAL"
*DIVIDER /
*DELIMITER :
*BUS_DELIMITER []
*T_UNIT 1 NS
*C_UNIT 1 PF
*R_UNIT 1 OHM
*L_UNIT 1 HENRY

// MMMC spef file for corner 'standard'

*NAME_MAP

*1 FE_PHN74_RST
*2 FE_PHN73_RST
*3 FE_PHN72_RST
*4 FE_PHN71_RST
*5 FE_PHN70_RST
*6 FE_PHN69_RST
*7 FE_PHN68_RST
*8 FE_PHN67_RST
*9 FE_PHN66_RST
*10 regA/FE_PHN65_A_30
*11 FE_PHN64_B_3
*12 regB/FE_PHN63_B_27
*13 FE_PHN62_B_6
*14 FE_PHN61_B_2
*15 FE_PHN60_B_1
*16 FE_PHN59_B_0
*17 regB/FE_PHN58_B_26
*18 FE_PHN57_RST
*19 regA/FE_PHN56_A_31
*20 regA/FE_PHN55_A_29
*21 FE_PHN54_A_0
*22 regB/FE_PHN53_B_25
*23 FE_PHN52_A_28
*24 regA/FE_PHN51_A_15
*25 regB/FE_PHN50_B_29
*26 FE_PHN49_B_28
*27 regB/FE_PHN48_B_24
*28 regB/FE_PHN47_B_17
*29 regB/FE_PHN46_B_16
*30 regB/FE_PHN45_B_5
*31 ffCi/FE_PHN44_Ci
*32 FE_PHN43_A_21
*33 FE_PHN42_B_7
*34 regA/FE_PHN41_A_1
*35 FE_PHN40_A_20
*36 regA/FE_PHN39_A_24
*37 regA/FE_PHN38_A_16
*38 FE_PHN37_A_2
*39 regB/FE_PHN36_B_30
*40 regB/FE_PHN35_B_18
*41 regB/FE_PHN34_B_4
*42 regA/FE_PHN33_A_26
*43 regA/FE_PHN32_A_25
*44 regA/FE_PHN31_A_17
*45 regA/FE_PHN30_A_14
*46 regA/FE_PHN29_A_12
*47 FE_PHN28_A_7
*48 FE_PHN27_A_6
*49 FE_PHN26_A_3
*50 regB/FE_PHN25_B_31
*51 FE_PHN24_B_23
*52 regB/FE_PHN23_B_22
*53 FE_PHN22_B_21
*54 FE_PHN21_B_20
*55 FE_PHN20_B_19
*56 regB/FE_PHN19_B_8
*57 regA/FE_PHN18_A_23
*58 regA/FE_PHN17_A_22
*59 regA/FE_PHN16_A_18
*60 regA/FE_PHN15_A_27
*61 regA/FE_PHN14_A_13
*62 regA/FE_PHN13_A_9
*63 regB/FE_PHN12_B_11
*64 regB/FE_PHN11_B_10
*65 regA/FE_PHN10_A_19
*66 regB/FE_PHN9_B_15
*67 regB/FE_PHN8_B_14
*68 regA/FE_PHN7_A_11
*69 regA/FE_PHN6_A_10
*70 regA/FE_PHN5_A_8
*71 regA/FE_PHN4_A_5
*72 regA/FE_PHN3_A_4
*73 regB/FE_PHN2_B_13
*74 regB/FE_PHN1_B_12
*75 regB/FE_PHN0_B_9
*76 FE_OFN1_RST
*77 FE_OFN0_RST
*78 A[31]
*79 A[30]
*80 A[29]
*81 A[28]
*82 A[27]
*83 A[26]
*84 A[25]
*85 A[24]
*86 A[23]
*87 A[22]
*88 A[21]
*89 A[20]
*90 A[19]
*91 A[18]
*92 A[17]
*93 A[16]
*94 A[15]
*95 A[14]
*96 A[13]
*97 A[12]
*98 A[11]
*99 A[10]
*100 A[9]
*101 A[8]
*102 A[7]
*103 A[6]
*104 A[5]
*105 A[4]
*106 A[3]
*107 A[2]
*108 A[1]
*109 A[0]
*110 B[31]
*111 B[30]
*112 B[29]
*113 B[28]
*114 B[27]
*115 B[26]
*116 B[25]
*117 B[24]
*118 B[23]
*119 B[22]
*120 B[21]
*121 B[20]
*122 B[19]
*123 B[18]
*124 B[17]
*125 B[16]
*126 B[15]
*127 B[14]
*128 B[13]
*129 B[12]
*130 B[11]
*131 B[10]
*132 B[9]
*133 B[8]
*134 B[7]
*135 B[6]
*136 B[5]
*137 B[4]
*138 B[3]
*139 B[2]
*140 B[1]
*141 B[0]
*142 S[31]
*143 S[30]
*144 S[29]
*145 S[28]
*146 S[27]
*147 S[26]
*148 S[25]
*149 S[24]
*150 S[23]
*151 S[22]
*152 S[21]
*153 S[20]
*154 S[19]
*155 S[18]
*156 S[17]
*157 S[16]
*158 S[15]
*159 S[14]
*160 S[13]
*161 S[12]
*162 S[11]
*163 S[10]
*164 S[9]
*165 S[8]
*166 S[7]
*167 S[6]
*168 S[5]
*169 S[4]
*170 S[3]
*171 S[2]
*172 S[1]
*173 S[0]
*174 CLK
*175 RST
*176 Ci
*177 Co
*178 w_Ci
*179 w_Co
*180 w_A[31]
*181 w_A[30]
*182 w_A[29]
*183 w_A[28]
*184 w_A[27]
*185 w_A[26]
*186 w_A[25]
*187 w_A[24]
*188 w_A[23]
*189 w_A[22]
*190 w_A[21]
*191 w_A[20]
*192 w_A[19]
*193 w_A[18]
*194 w_A[17]
*195 w_A[16]
*196 w_A[15]
*197 w_A[14]
*198 w_A[13]
*199 w_A[12]
*200 w_A[11]
*201 w_A[10]
*202 w_A[9]
*203 w_A[8]
*204 w_A[7]
*205 w_A[6]
*206 w_A[5]
*207 w_A[4]
*208 w_A[3]
*209 w_A[2]
*210 w_A[1]
*211 w_A[0]
*212 w_B[31]
*213 w_B[30]
*214 w_B[29]
*215 w_B[28]
*216 w_B[27]
*217 w_B[26]
*218 w_B[25]
*219 w_B[24]
*220 w_B[23]
*221 w_B[22]
*222 w_B[21]
*223 w_B[20]
*224 w_B[19]
*225 w_B[18]
*226 w_B[17]
*227 w_B[16]
*228 w_B[15]
*229 w_B[14]
*230 w_B[13]
*231 w_B[12]
*232 w_B[11]
*233 w_B[10]
*234 w_B[9]
*235 w_B[8]
*236 w_B[7]
*237 w_B[6]
*238 w_B[5]
*239 w_B[4]
*240 w_B[3]
*241 w_B[2]
*242 w_B[1]
*243 w_B[0]
*244 w_S[31]
*245 w_S[30]
*246 w_S[29]
*247 w_S[28]
*248 w_S[27]
*249 w_S[26]
*250 w_S[25]
*251 w_S[24]
*252 w_S[23]
*253 w_S[22]
*254 w_S[21]
*255 w_S[20]
*256 w_S[19]
*257 w_S[18]
*258 w_S[17]
*259 w_S[16]
*260 w_S[15]
*261 w_S[14]
*262 w_S[13]
*263 w_S[12]
*264 w_S[11]
*265 w_S[10]
*266 w_S[9]
*267 w_S[8]
*268 w_S[7]
*269 w_S[6]
*270 w_S[5]
*271 w_S[4]
*272 w_S[3]
*273 w_S[2]
*274 w_S[1]
*275 w_S[0]
*276 adder/carry_ST[6]
*277 adder/carry_ST[5]
*278 adder/carry_ST[4]
*279 adder/carry_ST[3]
*280 adder/carry_ST[2]
*281 adder/carry_ST[1]
*282 adder/carry_ST[0]
*283 adder/SPARSETREE0/s_G\[4\]\[31\]
*284 adder/SPARSETREE0/s_G\[4\]\[27\]
*285 adder/SPARSETREE0/s_G\[3\]\[31\]
*286 adder/SPARSETREE0/s_G\[3\]\[23\]
*287 adder/SPARSETREE0/s_G\[3\]\[15\]
*288 adder/SPARSETREE0/s_G\[2\]\[31\]
*289 adder/SPARSETREE0/s_G\[2\]\[27\]
*290 adder/SPARSETREE0/s_G\[2\]\[23\]
*291 adder/SPARSETREE0/s_G\[2\]\[19\]
*292 adder/SPARSETREE0/s_G\[2\]\[15\]
*293 adder/SPARSETREE0/s_G\[2\]\[11\]
*294 adder/SPARSETREE0/s_G\[2\]\[7\]
*295 adder/SPARSETREE0/s_G\[1\]\[31\]
*296 adder/SPARSETREE0/s_G\[1\]\[29\]
*297 adder/SPARSETREE0/s_G\[1\]\[27\]
*298 adder/SPARSETREE0/s_G\[1\]\[25\]
*299 adder/SPARSETREE0/s_G\[1\]\[23\]
*300 adder/SPARSETREE0/s_G\[1\]\[21\]
*301 adder/SPARSETREE0/s_G\[1\]\[19\]
*302 adder/SPARSETREE0/s_G\[1\]\[17\]
*303 adder/SPARSETREE0/s_G\[1\]\[15\]
*304 adder/SPARSETREE0/s_G\[1\]\[13\]
*305 adder/SPARSETREE0/s_G\[1\]\[11\]
*306 adder/SPARSETREE0/s_G\[1\]\[9\]
*307 adder/SPARSETREE0/s_G\[1\]\[7\]
*308 adder/SPARSETREE0/s_G\[1\]\[5\]
*309 adder/SPARSETREE0/s_G\[1\]\[3\]
*310 adder/SPARSETREE0/s_G\[1\]\[1\]
*311 adder/SPARSETREE0/s_G\[0\]\[31\]
*312 adder/SPARSETREE0/s_G\[0\]\[30\]
*313 adder/SPARSETREE0/s_G\[0\]\[29\]
*314 adder/SPARSETREE0/s_G\[0\]\[28\]
*315 adder/SPARSETREE0/s_G\[0\]\[27\]
*316 adder/SPARSETREE0/s_G\[0\]\[26\]
*317 adder/SPARSETREE0/s_G\[0\]\[25\]
*318 adder/SPARSETREE0/s_G\[0\]\[24\]
*319 adder/SPARSETREE0/s_G\[0\]\[23\]
*320 adder/SPARSETREE0/s_G\[0\]\[22\]
*321 adder/SPARSETREE0/s_G\[0\]\[21\]
*322 adder/SPARSETREE0/s_G\[0\]\[20\]
*323 adder/SPARSETREE0/s_G\[0\]\[19\]
*324 adder/SPARSETREE0/s_G\[0\]\[18\]
*325 adder/SPARSETREE0/s_G\[0\]\[17\]
*326 adder/SPARSETREE0/s_G\[0\]\[16\]
*327 adder/SPARSETREE0/s_G\[0\]\[15\]
*328 adder/SPARSETREE0/s_G\[0\]\[14\]
*329 adder/SPARSETREE0/s_G\[0\]\[13\]
*330 adder/SPARSETREE0/s_G\[0\]\[12\]
*331 adder/SPARSETREE0/s_G\[0\]\[11\]
*332 adder/SPARSETREE0/s_G\[0\]\[10\]
*333 adder/SPARSETREE0/s_G\[0\]\[9\]
*334 adder/SPARSETREE0/s_G\[0\]\[8\]
*335 adder/SPARSETREE0/s_G\[0\]\[7\]
*336 adder/SPARSETREE0/s_G\[0\]\[6\]
*337 adder/SPARSETREE0/s_G\[0\]\[5\]
*338 adder/SPARSETREE0/s_G\[0\]\[4\]
*339 adder/SPARSETREE0/s_G\[0\]\[3\]
*340 adder/SPARSETREE0/s_G\[0\]\[2\]
*341 adder/SPARSETREE0/s_G\[0\]\[1\]
*342 adder/SPARSETREE0/s_P\[4\]\[31\]
*343 adder/SPARSETREE0/s_P\[4\]\[27\]
*344 adder/SPARSETREE0/s_P\[3\]\[31\]
*345 adder/SPARSETREE0/s_P\[3\]\[23\]
*346 adder/SPARSETREE0/s_P\[3\]\[15\]
*347 adder/SPARSETREE0/s_P\[2\]\[31\]
*348 adder/SPARSETREE0/s_P\[2\]\[27\]
*349 adder/SPARSETREE0/s_P\[2\]\[23\]
*350 adder/SPARSETREE0/s_P\[2\]\[19\]
*351 adder/SPARSETREE0/s_P\[2\]\[15\]
*352 adder/SPARSETREE0/s_P\[2\]\[11\]
*353 adder/SPARSETREE0/s_P\[2\]\[7\]
*354 adder/SPARSETREE0/s_P\[1\]\[31\]
*355 adder/SPARSETREE0/s_P\[1\]\[29\]
*356 adder/SPARSETREE0/s_P\[1\]\[27\]
*357 adder/SPARSETREE0/s_P\[1\]\[25\]
*358 adder/SPARSETREE0/s_P\[1\]\[23\]
*359 adder/SPARSETREE0/s_P\[1\]\[21\]
*360 adder/SPARSETREE0/s_P\[1\]\[19\]
*361 adder/SPARSETREE0/s_P\[1\]\[17\]
*362 adder/SPARSETREE0/s_P\[1\]\[15\]
*363 adder/SPARSETREE0/s_P\[1\]\[13\]
*364 adder/SPARSETREE0/s_P\[1\]\[11\]
*365 adder/SPARSETREE0/s_P\[1\]\[9\]
*366 adder/SPARSETREE0/s_P\[1\]\[7\]
*367 adder/SPARSETREE0/s_P\[1\]\[5\]
*368 adder/SPARSETREE0/s_P\[1\]\[3\]
*369 adder/SPARSETREE0/s_P\[0\]\[31\]
*370 adder/SPARSETREE0/s_P\[0\]\[30\]
*371 adder/SPARSETREE0/s_P\[0\]\[29\]
*372 adder/SPARSETREE0/s_P\[0\]\[28\]
*373 adder/SPARSETREE0/s_P\[0\]\[27\]
*374 adder/SPARSETREE0/s_P\[0\]\[26\]
*375 adder/SPARSETREE0/s_P\[0\]\[25\]
*376 adder/SPARSETREE0/s_P\[0\]\[24\]
*377 adder/SPARSETREE0/s_P\[0\]\[23\]
*378 adder/SPARSETREE0/s_P\[0\]\[22\]
*379 adder/SPARSETREE0/s_P\[0\]\[21\]
*380 adder/SPARSETREE0/s_P\[0\]\[20\]
*381 adder/SPARSETREE0/s_P\[0\]\[19\]
*382 adder/SPARSETREE0/s_P\[0\]\[18\]
*383 adder/SPARSETREE0/s_P\[0\]\[17\]
*384 adder/SPARSETREE0/s_P\[0\]\[16\]
*385 adder/SPARSETREE0/s_P\[0\]\[15\]
*386 adder/SPARSETREE0/s_P\[0\]\[14\]
*387 adder/SPARSETREE0/s_P\[0\]\[13\]
*388 adder/SPARSETREE0/s_P\[0\]\[12\]
*389 adder/SPARSETREE0/s_P\[0\]\[11\]
*390 adder/SPARSETREE0/s_P\[0\]\[10\]
*391 adder/SPARSETREE0/s_P\[0\]\[9\]
*392 adder/SPARSETREE0/s_P\[0\]\[8\]
*393 adder/SPARSETREE0/s_P\[0\]\[7\]
*394 adder/SPARSETREE0/s_P\[0\]\[6\]
*395 adder/SPARSETREE0/s_P\[0\]\[5\]
*396 adder/SPARSETREE0/s_P\[0\]\[4\]
*397 adder/SPARSETREE0/s_P\[0\]\[3\]
*398 adder/SPARSETREE0/s_P\[0\]\[2\]
*399 adder/SPARSETREE0/s_P\[0\]\[1\]
*400 adder/SPARSETREE0/n_G1_1_1/n2
*401 adder/SPARSETREE0/m_PG1_1_3/n2
*402 adder/SPARSETREE0/m_PG1_1_5/n1
*403 adder/SPARSETREE0/m_PG1_1_7/n1
*404 adder/SPARSETREE0/m_PG1_1_9/n1
*405 adder/SPARSETREE0/m_PG1_1_11/n1
*406 adder/SPARSETREE0/m_PG1_1_13/n1
*407 adder/SPARSETREE0/m_PG1_1_15/n1
*408 adder/SPARSETREE0/m_PG1_1_17/n1
*409 adder/SPARSETREE0/m_PG1_1_19/n1
*410 adder/SPARSETREE0/m_PG1_1_21/n1
*411 adder/SPARSETREE0/m_PG1_1_23/n1
*412 adder/SPARSETREE0/m_PG1_1_25/n1
*413 adder/SPARSETREE0/m_PG1_1_27/n1
*414 adder/SPARSETREE0/m_PG1_1_29/n1
*415 adder/SPARSETREE0/m_PG1_1_31/n1
*416 adder/SPARSETREE0/n_G1_2_3/n1
*417 adder/SPARSETREE0/m_PG1_2_7/n1
*418 adder/SPARSETREE0/m_PG1_2_11/n1
*419 adder/SPARSETREE0/m_PG1_2_15/n1
*420 adder/SPARSETREE0/m_PG1_2_19/n1
*421 adder/SPARSETREE0/m_PG1_2_23/n1
*422 adder/SPARSETREE0/m_PG1_2_27/n1
*423 adder/SPARSETREE0/m_PG1_2_31/n1
*424 adder/SPARSETREE0/n_G2_3_7/n1
*425 adder/SPARSETREE0/m_PG2_3_15/n1
*426 adder/SPARSETREE0/m_PG2_3_23/n1
*427 adder/SPARSETREE0/m_PG2_3_31/n1
*428 adder/SPARSETREE0/n_G2_4_11/n1
*429 adder/SPARSETREE0/n_G2_4_15/n1
*430 adder/SPARSETREE0/m_PG2_4_27/n1
*431 adder/SPARSETREE0/m_PG2_4_31/n1
*432 adder/SPARSETREE0/n_G2_5_19/n1
*433 adder/SPARSETREE0/n_G2_5_23/n1
*434 adder/SPARSETREE0/n_G2_5_27/n1
*435 adder/SPARSETREE0/n_G2_5_31/n1
*436 adder/SUMGEN0/GENi_7/S0[3]
*437 adder/SUMGEN0/GENi_7/S0[2]
*438 adder/SUMGEN0/GENi_7/S0[1]
*439 adder/SUMGEN0/GENi_7/S0[0]
*440 adder/SUMGEN0/GENi_7/S1[3]
*441 adder/SUMGEN0/GENi_7/S1[2]
*442 adder/SUMGEN0/GENi_7/S1[1]
*443 adder/SUMGEN0/GENi_7/S1[0]
*444 adder/SUMGEN0/GENi_7/RCA0/Co
*445 adder/SUMGEN0/GENi_7/RCA0/CTMP[3]
*446 adder/SUMGEN0/GENi_7/RCA0/CTMP[2]
*447 adder/SUMGEN0/GENi_7/RCA0/CTMP[1]
*448 adder/SUMGEN0/GENi_7/RCA0/FAI_1/n2
*449 adder/SUMGEN0/GENi_7/RCA0/FAI_1/n3
*450 adder/SUMGEN0/GENi_7/RCA0/FAI_2/n1
*451 adder/SUMGEN0/GENi_7/RCA0/FAI_2/n3
*452 adder/SUMGEN0/GENi_7/RCA0/FAI_3/n1
*453 adder/SUMGEN0/GENi_7/RCA0/FAI_3/n3
*454 adder/SUMGEN0/GENi_7/RCA0/FAI_4/n1
*455 adder/SUMGEN0/GENi_7/RCA0/FAI_4/n3
*456 adder/SUMGEN0/GENi_7/RCA1/Co
*457 adder/SUMGEN0/GENi_7/RCA1/CTMP[3]
*458 adder/SUMGEN0/GENi_7/RCA1/CTMP[2]
*459 adder/SUMGEN0/GENi_7/RCA1/CTMP[1]
*460 adder/SUMGEN0/GENi_7/RCA1/FAI_1/n1
*461 adder/SUMGEN0/GENi_7/RCA1/FAI_1/n3
*462 adder/SUMGEN0/GENi_7/RCA1/FAI_2/n1
*463 adder/SUMGEN0/GENi_7/RCA1/FAI_2/n3
*464 adder/SUMGEN0/GENi_7/RCA1/FAI_3/n1
*465 adder/SUMGEN0/GENi_7/RCA1/FAI_3/n3
*466 adder/SUMGEN0/GENi_7/RCA1/FAI_4/n1
*467 adder/SUMGEN0/GENi_7/RCA1/FAI_4/n3
*468 adder/SUMGEN0/GENi_7/MUX21_SUM/n5
*469 adder/SUMGEN0/GENi_7/MUX21_SUM/n6
*470 adder/SUMGEN0/GENi_7/MUX21_SUM/n7
*471 adder/SUMGEN0/GENi_7/MUX21_SUM/n8
*472 adder/SUMGEN0/GENi_7/MUX21_SUM/n9
*473 adder/SUMGEN0/GENi_6/S0[3]
*474 adder/SUMGEN0/GENi_6/S0[2]
*475 adder/SUMGEN0/GENi_6/S0[1]
*476 adder/SUMGEN0/GENi_6/S0[0]
*477 adder/SUMGEN0/GENi_6/S1[3]
*478 adder/SUMGEN0/GENi_6/S1[2]
*479 adder/SUMGEN0/GENi_6/S1[1]
*480 adder/SUMGEN0/GENi_6/S1[0]
*481 adder/SUMGEN0/GENi_6/RCA0/Co
*482 adder/SUMGEN0/GENi_6/RCA0/CTMP[3]
*483 adder/SUMGEN0/GENi_6/RCA0/CTMP[2]
*484 adder/SUMGEN0/GENi_6/RCA0/CTMP[1]
*485 adder/SUMGEN0/GENi_6/RCA0/FAI_1/n1
*486 adder/SUMGEN0/GENi_6/RCA0/FAI_1/n3
*487 adder/SUMGEN0/GENi_6/RCA0/FAI_2/n1
*488 adder/SUMGEN0/GENi_6/RCA0/FAI_2/n3
*489 adder/SUMGEN0/GENi_6/RCA0/FAI_3/n1
*490 adder/SUMGEN0/GENi_6/RCA0/FAI_3/n3
*491 adder/SUMGEN0/GENi_6/RCA0/FAI_4/n1
*492 adder/SUMGEN0/GENi_6/RCA0/FAI_4/n3
*493 adder/SUMGEN0/GENi_6/RCA1/Co
*494 adder/SUMGEN0/GENi_6/RCA1/CTMP[3]
*495 adder/SUMGEN0/GENi_6/RCA1/CTMP[2]
*496 adder/SUMGEN0/GENi_6/RCA1/CTMP[1]
*497 adder/SUMGEN0/GENi_6/RCA1/FAI_1/n1
*498 adder/SUMGEN0/GENi_6/RCA1/FAI_1/n3
*499 adder/SUMGEN0/GENi_6/RCA1/FAI_2/n1
*500 adder/SUMGEN0/GENi_6/RCA1/FAI_2/n3
*501 adder/SUMGEN0/GENi_6/RCA1/FAI_3/n1
*502 adder/SUMGEN0/GENi_6/RCA1/FAI_3/n3
*503 adder/SUMGEN0/GENi_6/RCA1/FAI_4/n1
*504 adder/SUMGEN0/GENi_6/RCA1/FAI_4/n3
*505 adder/SUMGEN0/GENi_6/MUX21_SUM/n1
*506 adder/SUMGEN0/GENi_6/MUX21_SUM/n2
*507 adder/SUMGEN0/GENi_6/MUX21_SUM/n3
*508 adder/SUMGEN0/GENi_6/MUX21_SUM/n4
*509 adder/SUMGEN0/GENi_6/MUX21_SUM/n6
*510 adder/SUMGEN0/GENi_5/S0[3]
*511 adder/SUMGEN0/GENi_5/S0[2]
*512 adder/SUMGEN0/GENi_5/S0[1]
*513 adder/SUMGEN0/GENi_5/S0[0]
*514 adder/SUMGEN0/GENi_5/S1[3]
*515 adder/SUMGEN0/GENi_5/S1[2]
*516 adder/SUMGEN0/GENi_5/S1[1]
*517 adder/SUMGEN0/GENi_5/S1[0]
*518 adder/SUMGEN0/GENi_5/RCA0/Co
*519 adder/SUMGEN0/GENi_5/RCA0/CTMP[3]
*520 adder/SUMGEN0/GENi_5/RCA0/CTMP[2]
*521 adder/SUMGEN0/GENi_5/RCA0/CTMP[1]
*522 adder/SUMGEN0/GENi_5/RCA0/FAI_1/n1
*523 adder/SUMGEN0/GENi_5/RCA0/FAI_1/n3
*524 adder/SUMGEN0/GENi_5/RCA0/FAI_2/n1
*525 adder/SUMGEN0/GENi_5/RCA0/FAI_2/n3
*526 adder/SUMGEN0/GENi_5/RCA0/FAI_3/n1
*527 adder/SUMGEN0/GENi_5/RCA0/FAI_3/n3
*528 adder/SUMGEN0/GENi_5/RCA0/FAI_4/n1
*529 adder/SUMGEN0/GENi_5/RCA0/FAI_4/n3
*530 adder/SUMGEN0/GENi_5/RCA1/Co
*531 adder/SUMGEN0/GENi_5/RCA1/CTMP[3]
*532 adder/SUMGEN0/GENi_5/RCA1/CTMP[2]
*533 adder/SUMGEN0/GENi_5/RCA1/CTMP[1]
*534 adder/SUMGEN0/GENi_5/RCA1/FAI_1/n1
*535 adder/SUMGEN0/GENi_5/RCA1/FAI_1/n3
*536 adder/SUMGEN0/GENi_5/RCA1/FAI_2/n1
*537 adder/SUMGEN0/GENi_5/RCA1/FAI_2/n3
*538 adder/SUMGEN0/GENi_5/RCA1/FAI_3/n1
*539 adder/SUMGEN0/GENi_5/RCA1/FAI_3/n3
*540 adder/SUMGEN0/GENi_5/RCA1/FAI_4/n1
*541 adder/SUMGEN0/GENi_5/RCA1/FAI_4/n3
*542 adder/SUMGEN0/GENi_5/MUX21_SUM/n1
*543 adder/SUMGEN0/GENi_5/MUX21_SUM/n2
*544 adder/SUMGEN0/GENi_5/MUX21_SUM/n3
*545 adder/SUMGEN0/GENi_5/MUX21_SUM/n4
*546 adder/SUMGEN0/GENi_5/MUX21_SUM/n6
*547 adder/SUMGEN0/GENi_4/S0[3]
*548 adder/SUMGEN0/GENi_4/S0[2]
*549 adder/SUMGEN0/GENi_4/S0[1]
*550 adder/SUMGEN0/GENi_4/S0[0]
*551 adder/SUMGEN0/GENi_4/S1[3]
*552 adder/SUMGEN0/GENi_4/S1[2]
*553 adder/SUMGEN0/GENi_4/S1[1]
*554 adder/SUMGEN0/GENi_4/S1[0]
*555 adder/SUMGEN0/GENi_4/RCA0/Co
*556 adder/SUMGEN0/GENi_4/RCA0/CTMP[3]
*557 adder/SUMGEN0/GENi_4/RCA0/CTMP[2]
*558 adder/SUMGEN0/GENi_4/RCA0/CTMP[1]
*559 adder/SUMGEN0/GENi_4/RCA0/FAI_1/n1
*560 adder/SUMGEN0/GENi_4/RCA0/FAI_1/n3
*561 adder/SUMGEN0/GENi_4/RCA0/FAI_2/n1
*562 adder/SUMGEN0/GENi_4/RCA0/FAI_2/n3
*563 adder/SUMGEN0/GENi_4/RCA0/FAI_3/n1
*564 adder/SUMGEN0/GENi_4/RCA0/FAI_3/n3
*565 adder/SUMGEN0/GENi_4/RCA0/FAI_4/n1
*566 adder/SUMGEN0/GENi_4/RCA0/FAI_4/n3
*567 adder/SUMGEN0/GENi_4/RCA1/Co
*568 adder/SUMGEN0/GENi_4/RCA1/CTMP[3]
*569 adder/SUMGEN0/GENi_4/RCA1/CTMP[2]
*570 adder/SUMGEN0/GENi_4/RCA1/CTMP[1]
*571 adder/SUMGEN0/GENi_4/RCA1/FAI_1/n1
*572 adder/SUMGEN0/GENi_4/RCA1/FAI_1/n3
*573 adder/SUMGEN0/GENi_4/RCA1/FAI_2/n1
*574 adder/SUMGEN0/GENi_4/RCA1/FAI_2/n3
*575 adder/SUMGEN0/GENi_4/RCA1/FAI_3/n1
*576 adder/SUMGEN0/GENi_4/RCA1/FAI_3/n3
*577 adder/SUMGEN0/GENi_4/RCA1/FAI_4/n1
*578 adder/SUMGEN0/GENi_4/RCA1/FAI_4/n3
*579 adder/SUMGEN0/GENi_4/MUX21_SUM/n1
*580 adder/SUMGEN0/GENi_4/MUX21_SUM/n2
*581 adder/SUMGEN0/GENi_4/MUX21_SUM/n3
*582 adder/SUMGEN0/GENi_4/MUX21_SUM/n4
*583 adder/SUMGEN0/GENi_4/MUX21_SUM/n6
*584 adder/SUMGEN0/GENi_3/S0[3]
*585 adder/SUMGEN0/GENi_3/S0[2]
*586 adder/SUMGEN0/GENi_3/S0[1]
*587 adder/SUMGEN0/GENi_3/S0[0]
*588 adder/SUMGEN0/GENi_3/S1[3]
*589 adder/SUMGEN0/GENi_3/S1[2]
*590 adder/SUMGEN0/GENi_3/S1[1]
*591 adder/SUMGEN0/GENi_3/S1[0]
*592 adder/SUMGEN0/GENi_3/RCA0/Co
*593 adder/SUMGEN0/GENi_3/RCA0/CTMP[3]
*594 adder/SUMGEN0/GENi_3/RCA0/CTMP[2]
*595 adder/SUMGEN0/GENi_3/RCA0/CTMP[1]
*596 adder/SUMGEN0/GENi_3/RCA0/FAI_1/n1
*597 adder/SUMGEN0/GENi_3/RCA0/FAI_1/n3
*598 adder/SUMGEN0/GENi_3/RCA0/FAI_2/n1
*599 adder/SUMGEN0/GENi_3/RCA0/FAI_2/n3
*600 adder/SUMGEN0/GENi_3/RCA0/FAI_3/n1
*601 adder/SUMGEN0/GENi_3/RCA0/FAI_3/n3
*602 adder/SUMGEN0/GENi_3/RCA0/FAI_4/n1
*603 adder/SUMGEN0/GENi_3/RCA0/FAI_4/n3
*604 adder/SUMGEN0/GENi_3/RCA1/Co
*605 adder/SUMGEN0/GENi_3/RCA1/CTMP[3]
*606 adder/SUMGEN0/GENi_3/RCA1/CTMP[2]
*607 adder/SUMGEN0/GENi_3/RCA1/CTMP[1]
*608 adder/SUMGEN0/GENi_3/RCA1/FAI_1/n1
*609 adder/SUMGEN0/GENi_3/RCA1/FAI_1/n3
*610 adder/SUMGEN0/GENi_3/RCA1/FAI_2/n1
*611 adder/SUMGEN0/GENi_3/RCA1/FAI_2/n3
*612 adder/SUMGEN0/GENi_3/RCA1/FAI_3/n1
*613 adder/SUMGEN0/GENi_3/RCA1/FAI_3/n3
*614 adder/SUMGEN0/GENi_3/RCA1/FAI_4/n1
*615 adder/SUMGEN0/GENi_3/RCA1/FAI_4/n3
*616 adder/SUMGEN0/GENi_3/MUX21_SUM/n1
*617 adder/SUMGEN0/GENi_3/MUX21_SUM/n2
*618 adder/SUMGEN0/GENi_3/MUX21_SUM/n3
*619 adder/SUMGEN0/GENi_3/MUX21_SUM/n4
*620 adder/SUMGEN0/GENi_3/MUX21_SUM/n6
*621 adder/SUMGEN0/GENi_2/S0[3]
*622 adder/SUMGEN0/GENi_2/S0[2]
*623 adder/SUMGEN0/GENi_2/S0[1]
*624 adder/SUMGEN0/GENi_2/S0[0]
*625 adder/SUMGEN0/GENi_2/S1[3]
*626 adder/SUMGEN0/GENi_2/S1[2]
*627 adder/SUMGEN0/GENi_2/S1[1]
*628 adder/SUMGEN0/GENi_2/S1[0]
*629 adder/SUMGEN0/GENi_2/RCA0/Co
*630 adder/SUMGEN0/GENi_2/RCA0/CTMP[3]
*631 adder/SUMGEN0/GENi_2/RCA0/CTMP[2]
*632 adder/SUMGEN0/GENi_2/RCA0/CTMP[1]
*633 adder/SUMGEN0/GENi_2/RCA0/FAI_1/n1
*634 adder/SUMGEN0/GENi_2/RCA0/FAI_1/n3
*635 adder/SUMGEN0/GENi_2/RCA0/FAI_2/n1
*636 adder/SUMGEN0/GENi_2/RCA0/FAI_2/n3
*637 adder/SUMGEN0/GENi_2/RCA0/FAI_3/n1
*638 adder/SUMGEN0/GENi_2/RCA0/FAI_3/n3
*639 adder/SUMGEN0/GENi_2/RCA0/FAI_4/n1
*640 adder/SUMGEN0/GENi_2/RCA0/FAI_4/n3
*641 adder/SUMGEN0/GENi_2/RCA1/Co
*642 adder/SUMGEN0/GENi_2/RCA1/CTMP[3]
*643 adder/SUMGEN0/GENi_2/RCA1/CTMP[2]
*644 adder/SUMGEN0/GENi_2/RCA1/CTMP[1]
*645 adder/SUMGEN0/GENi_2/RCA1/FAI_1/n1
*646 adder/SUMGEN0/GENi_2/RCA1/FAI_1/n3
*647 adder/SUMGEN0/GENi_2/RCA1/FAI_2/n1
*648 adder/SUMGEN0/GENi_2/RCA1/FAI_2/n3
*649 adder/SUMGEN0/GENi_2/RCA1/FAI_3/n1
*650 adder/SUMGEN0/GENi_2/RCA1/FAI_3/n3
*651 adder/SUMGEN0/GENi_2/RCA1/FAI_4/n1
*652 adder/SUMGEN0/GENi_2/RCA1/FAI_4/n3
*653 adder/SUMGEN0/GENi_2/MUX21_SUM/n1
*654 adder/SUMGEN0/GENi_2/MUX21_SUM/n2
*655 adder/SUMGEN0/GENi_2/MUX21_SUM/n3
*656 adder/SUMGEN0/GENi_2/MUX21_SUM/n4
*657 adder/SUMGEN0/GENi_2/MUX21_SUM/n6
*658 adder/SUMGEN0/GENi_1/S0[3]
*659 adder/SUMGEN0/GENi_1/S0[2]
*660 adder/SUMGEN0/GENi_1/S0[1]
*661 adder/SUMGEN0/GENi_1/S0[0]
*662 adder/SUMGEN0/GENi_1/S1[3]
*663 adder/SUMGEN0/GENi_1/S1[2]
*664 adder/SUMGEN0/GENi_1/S1[1]
*665 adder/SUMGEN0/GENi_1/S1[0]
*666 adder/SUMGEN0/GENi_1/RCA0/Co
*667 adder/SUMGEN0/GENi_1/RCA0/CTMP[3]
*668 adder/SUMGEN0/GENi_1/RCA0/CTMP[2]
*669 adder/SUMGEN0/GENi_1/RCA0/CTMP[1]
*670 adder/SUMGEN0/GENi_1/RCA0/FAI_1/n1
*671 adder/SUMGEN0/GENi_1/RCA0/FAI_1/n3
*672 adder/SUMGEN0/GENi_1/RCA0/FAI_2/n1
*673 adder/SUMGEN0/GENi_1/RCA0/FAI_2/n3
*674 adder/SUMGEN0/GENi_1/RCA0/FAI_3/n1
*675 adder/SUMGEN0/GENi_1/RCA0/FAI_3/n3
*676 adder/SUMGEN0/GENi_1/RCA0/FAI_4/n1
*677 adder/SUMGEN0/GENi_1/RCA0/FAI_4/n3
*678 adder/SUMGEN0/GENi_1/RCA1/Co
*679 adder/SUMGEN0/GENi_1/RCA1/CTMP[3]
*680 adder/SUMGEN0/GENi_1/RCA1/CTMP[2]
*681 adder/SUMGEN0/GENi_1/RCA1/CTMP[1]
*682 adder/SUMGEN0/GENi_1/RCA1/FAI_1/n1
*683 adder/SUMGEN0/GENi_1/RCA1/FAI_1/n3
*684 adder/SUMGEN0/GENi_1/RCA1/FAI_2/n1
*685 adder/SUMGEN0/GENi_1/RCA1/FAI_2/n3
*686 adder/SUMGEN0/GENi_1/RCA1/FAI_3/n1
*687 adder/SUMGEN0/GENi_1/RCA1/FAI_3/n3
*688 adder/SUMGEN0/GENi_1/RCA1/FAI_4/n1
*689 adder/SUMGEN0/GENi_1/RCA1/FAI_4/n3
*690 adder/SUMGEN0/GENi_1/MUX21_SUM/n1
*691 adder/SUMGEN0/GENi_1/MUX21_SUM/n2
*692 adder/SUMGEN0/GENi_1/MUX21_SUM/n3
*693 adder/SUMGEN0/GENi_1/MUX21_SUM/n4
*694 adder/SUMGEN0/GENi_1/MUX21_SUM/n6
*695 adder/SUMGEN0/GENi_0/S0[3]
*696 adder/SUMGEN0/GENi_0/S0[2]
*697 adder/SUMGEN0/GENi_0/S0[1]
*698 adder/SUMGEN0/GENi_0/S0[0]
*699 adder/SUMGEN0/GENi_0/S1[3]
*700 adder/SUMGEN0/GENi_0/S1[2]
*701 adder/SUMGEN0/GENi_0/S1[1]
*702 adder/SUMGEN0/GENi_0/S1[0]
*703 adder/SUMGEN0/GENi_0/RCA0/Co
*704 adder/SUMGEN0/GENi_0/RCA0/CTMP[3]
*705 adder/SUMGEN0/GENi_0/RCA0/CTMP[2]
*706 adder/SUMGEN0/GENi_0/RCA0/CTMP[1]
*707 adder/SUMGEN0/GENi_0/RCA0/FAI_1/n1
*708 adder/SUMGEN0/GENi_0/RCA0/FAI_1/n3
*709 adder/SUMGEN0/GENi_0/RCA0/FAI_2/n1
*710 adder/SUMGEN0/GENi_0/RCA0/FAI_2/n3
*711 adder/SUMGEN0/GENi_0/RCA0/FAI_3/n1
*712 adder/SUMGEN0/GENi_0/RCA0/FAI_3/n3
*713 adder/SUMGEN0/GENi_0/RCA0/FAI_4/n1
*714 adder/SUMGEN0/GENi_0/RCA0/FAI_4/n3
*715 adder/SUMGEN0/GENi_0/RCA1/Co
*716 adder/SUMGEN0/GENi_0/RCA1/CTMP[3]
*717 adder/SUMGEN0/GENi_0/RCA1/CTMP[2]
*718 adder/SUMGEN0/GENi_0/RCA1/CTMP[1]
*719 adder/SUMGEN0/GENi_0/RCA1/FAI_1/n1
*720 adder/SUMGEN0/GENi_0/RCA1/FAI_1/n3
*721 adder/SUMGEN0/GENi_0/RCA1/FAI_2/n1
*722 adder/SUMGEN0/GENi_0/RCA1/FAI_2/n3
*723 adder/SUMGEN0/GENi_0/RCA1/FAI_3/n1
*724 adder/SUMGEN0/GENi_0/RCA1/FAI_3/n3
*725 adder/SUMGEN0/GENi_0/RCA1/FAI_4/n1
*726 adder/SUMGEN0/GENi_0/RCA1/FAI_4/n3
*727 adder/SUMGEN0/GENi_0/MUX21_SUM/n1
*728 adder/SUMGEN0/GENi_0/MUX21_SUM/n2
*729 adder/SUMGEN0/GENi_0/MUX21_SUM/n3
*730 adder/SUMGEN0/GENi_0/MUX21_SUM/n4
*731 adder/SUMGEN0/GENi_0/MUX21_SUM/n6
*732 FE_PHC74_RST
*733 FE_PHC73_RST
*734 FE_PHC72_RST
*735 FE_PHC71_RST
*736 FE_PHC70_RST
*737 FE_PHC69_RST
*738 FE_PHC68_RST
*739 FE_PHC67_RST
*740 FE_PHC66_RST
*741 FE_PHC64_B_3
*742 FE_PHC62_B_6
*743 FE_PHC61_B_2
*744 FE_PHC60_B_1
*745 FE_PHC59_B_0
*746 FE_PHC57_RST
*747 FE_PHC54_A_0
*748 FE_PHC52_A_28
*749 FE_PHC49_B_28
*750 FE_PHC43_A_21
*751 FE_PHC42_B_7
*752 FE_PHC40_A_20
*753 FE_PHC37_A_2
*754 FE_PHC28_A_7
*755 FE_PHC27_A_6
*756 FE_PHC26_A_3
*757 FE_PHC24_B_23
*758 FE_PHC22_B_21
*759 FE_PHC21_B_20
*760 FE_PHC20_B_19
*761 FE_OFC1_RST
*762 FE_OFC0_RST
*763 regA/FE_PHC65_A_30
*764 regA/FE_PHC56_A_31
*765 regA/FE_PHC55_A_29
*766 regA/FE_PHC51_A_15
*767 regA/FE_PHC41_A_1
*768 regA/FE_PHC39_A_24
*769 regA/FE_PHC38_A_16
*770 regA/FE_PHC33_A_26
*771 regA/FE_PHC32_A_25
*772 regA/FE_PHC31_A_17
*773 regA/FE_PHC30_A_14
*774 regA/FE_PHC29_A_12
*775 regA/FE_PHC18_A_23
*776 regA/FE_PHC17_A_22
*777 regA/FE_PHC16_A_18
*778 regA/FE_PHC15_A_27
*779 regA/FE_PHC14_A_13
*780 regA/FE_PHC13_A_9
*781 regA/FE_PHC10_A_19
*782 regA/FE_PHC7_A_11
*783 regA/FE_PHC6_A_10
*784 regA/FE_PHC5_A_8
*785 regA/FE_PHC4_A_5
*786 regA/FE_PHC3_A_4
*787 regA/Q_reg\[31\]
*788 regA/Q_reg\[30\]
*789 regA/Q_reg\[29\]
*790 regA/Q_reg\[28\]
*791 regA/Q_reg\[27\]
*792 regA/Q_reg\[26\]
*793 regA/Q_reg\[25\]
*794 regA/Q_reg\[24\]
*795 regA/Q_reg\[23\]
*796 regA/Q_reg\[22\]
*797 regA/Q_reg\[21\]
*798 regA/Q_reg\[20\]
*799 regA/Q_reg\[19\]
*800 regA/Q_reg\[18\]
*801 regA/Q_reg\[17\]
*802 regA/Q_reg\[16\]
*803 regA/Q_reg\[15\]
*804 regA/Q_reg\[14\]
*805 regA/Q_reg\[13\]
*806 regA/Q_reg\[12\]
*807 regA/Q_reg\[11\]
*808 regA/Q_reg\[10\]
*809 regA/Q_reg\[9\]
*810 regA/Q_reg\[8\]
*811 regA/Q_reg\[7\]
*812 regA/Q_reg\[6\]
*813 regA/Q_reg\[5\]
*814 regA/Q_reg\[4\]
*815 regA/Q_reg\[3\]
*816 regA/Q_reg\[2\]
*817 regA/Q_reg\[1\]
*818 regA/Q_reg\[0\]
*819 regB/FE_PHC63_B_27
*820 regB/FE_PHC58_B_26
*821 regB/FE_PHC53_B_25
*822 regB/FE_PHC50_B_29
*823 regB/FE_PHC48_B_24
*824 regB/FE_PHC47_B_17
*825 regB/FE_PHC46_B_16
*826 regB/FE_PHC45_B_5
*827 regB/FE_PHC36_B_30
*828 regB/FE_PHC35_B_18
*829 regB/FE_PHC34_B_4
*830 regB/FE_PHC25_B_31
*831 regB/FE_PHC23_B_22
*832 regB/FE_PHC19_B_8
*833 regB/FE_PHC12_B_11
*834 regB/FE_PHC11_B_10
*835 regB/FE_PHC9_B_15
*836 regB/FE_PHC8_B_14
*837 regB/FE_PHC2_B_13
*838 regB/FE_PHC1_B_12
*839 regB/FE_PHC0_B_9
*840 regB/Q_reg\[31\]
*841 regB/Q_reg\[30\]
*842 regB/Q_reg\[29\]
*843 regB/Q_reg\[28\]
*844 regB/Q_reg\[27\]
*845 regB/Q_reg\[26\]
*846 regB/Q_reg\[25\]
*847 regB/Q_reg\[24\]
*848 regB/Q_reg\[23\]
*849 regB/Q_reg\[22\]
*850 regB/Q_reg\[21\]
*851 regB/Q_reg\[20\]
*852 regB/Q_reg\[19\]
*853 regB/Q_reg\[18\]
*854 regB/Q_reg\[17\]
*855 regB/Q_reg\[16\]
*856 regB/Q_reg\[15\]
*857 regB/Q_reg\[14\]
*858 regB/Q_reg\[13\]
*859 regB/Q_reg\[12\]
*860 regB/Q_reg\[11\]
*861 regB/Q_reg\[10\]
*862 regB/Q_reg\[9\]
*863 regB/Q_reg\[8\]
*864 regB/Q_reg\[7\]
*865 regB/Q_reg\[6\]
*866 regB/Q_reg\[5\]
*867 regB/Q_reg\[4\]
*868 regB/Q_reg\[3\]
*869 regB/Q_reg\[2\]
*870 regB/Q_reg\[1\]
*871 regB/Q_reg\[0\]
*872 ffCi/FE_PHC44_Ci
*873 ffCi/Q_reg
*874 regS/Q_reg\[31\]
*875 regS/Q_reg\[30\]
*876 regS/Q_reg\[29\]
*877 regS/Q_reg\[28\]
*878 regS/Q_reg\[27\]
*879 regS/Q_reg\[26\]
*880 regS/Q_reg\[25\]
*881 regS/Q_reg\[24\]
*882 regS/Q_reg\[23\]
*883 regS/Q_reg\[22\]
*884 regS/Q_reg\[21\]
*885 regS/Q_reg\[20\]
*886 regS/Q_reg\[19\]
*887 regS/Q_reg\[18\]
*888 regS/Q_reg\[17\]
*889 regS/Q_reg\[16\]
*890 regS/Q_reg\[15\]
*891 regS/Q_reg\[14\]
*892 regS/Q_reg\[13\]
*893 regS/Q_reg\[12\]
*894 regS/Q_reg\[11\]
*895 regS/Q_reg\[10\]
*896 regS/Q_reg\[9\]
*897 regS/Q_reg\[8\]
*898 regS/Q_reg\[7\]
*899 regS/Q_reg\[6\]
*900 regS/Q_reg\[5\]
*901 regS/Q_reg\[4\]
*902 regS/Q_reg\[3\]
*903 regS/Q_reg\[2\]
*904 regS/Q_reg\[1\]
*905 regS/Q_reg\[0\]
*906 ffCo/Q_reg
*907 adder/SPARSETREE0/PGNETWORK/U33
*908 adder/SPARSETREE0/PGNETWORK/U34
*909 adder/SPARSETREE0/PGNETWORK/U35
*910 adder/SPARSETREE0/PGNETWORK/U36
*911 adder/SPARSETREE0/PGNETWORK/U37
*912 adder/SPARSETREE0/PGNETWORK/U38
*913 adder/SPARSETREE0/PGNETWORK/U39
*914 adder/SPARSETREE0/PGNETWORK/U40
*915 adder/SPARSETREE0/PGNETWORK/U41
*916 adder/SPARSETREE0/PGNETWORK/U42
*917 adder/SPARSETREE0/PGNETWORK/U43
*918 adder/SPARSETREE0/PGNETWORK/U44
*919 adder/SPARSETREE0/PGNETWORK/U45
*920 adder/SPARSETREE0/PGNETWORK/U46
*921 adder/SPARSETREE0/PGNETWORK/U47
*922 adder/SPARSETREE0/PGNETWORK/U48
*923 adder/SPARSETREE0/PGNETWORK/U49
*924 adder/SPARSETREE0/PGNETWORK/U50
*925 adder/SPARSETREE0/PGNETWORK/U51
*926 adder/SPARSETREE0/PGNETWORK/U52
*927 adder/SPARSETREE0/PGNETWORK/U53
*928 adder/SPARSETREE0/PGNETWORK/U54
*929 adder/SPARSETREE0/PGNETWORK/U55
*930 adder/SPARSETREE0/PGNETWORK/U56
*931 adder/SPARSETREE0/PGNETWORK/U57
*932 adder/SPARSETREE0/PGNETWORK/U58
*933 adder/SPARSETREE0/PGNETWORK/U59
*934 adder/SPARSETREE0/PGNETWORK/U60
*935 adder/SPARSETREE0/PGNETWORK/U61
*936 adder/SPARSETREE0/PGNETWORK/U62
*937 adder/SPARSETREE0/PGNETWORK/U63
*938 adder/SPARSETREE0/PGNETWORK/U2
*939 adder/SPARSETREE0/PGNETWORK/U3
*940 adder/SPARSETREE0/PGNETWORK/U4
*941 adder/SPARSETREE0/PGNETWORK/U5
*942 adder/SPARSETREE0/PGNETWORK/U6
*943 adder/SPARSETREE0/PGNETWORK/U7
*944 adder/SPARSETREE0/PGNETWORK/U8
*945 adder/SPARSETREE0/PGNETWORK/U9
*946 adder/SPARSETREE0/PGNETWORK/U10
*947 adder/SPARSETREE0/PGNETWORK/U11
*948 adder/SPARSETREE0/PGNETWORK/U12
*949 adder/SPARSETREE0/PGNETWORK/U13
*950 adder/SPARSETREE0/PGNETWORK/U14
*951 adder/SPARSETREE0/PGNETWORK/U15
*952 adder/SPARSETREE0/PGNETWORK/U16
*953 adder/SPARSETREE0/PGNETWORK/U17
*954 adder/SPARSETREE0/PGNETWORK/U18
*955 adder/SPARSETREE0/PGNETWORK/U19
*956 adder/SPARSETREE0/PGNETWORK/U20
*957 adder/SPARSETREE0/PGNETWORK/U21
*958 adder/SPARSETREE0/PGNETWORK/U22
*959 adder/SPARSETREE0/PGNETWORK/U23
*960 adder/SPARSETREE0/PGNETWORK/U24
*961 adder/SPARSETREE0/PGNETWORK/U25
*962 adder/SPARSETREE0/PGNETWORK/U26
*963 adder/SPARSETREE0/PGNETWORK/U27
*964 adder/SPARSETREE0/PGNETWORK/U28
*965 adder/SPARSETREE0/PGNETWORK/U29
*966 adder/SPARSETREE0/PGNETWORK/U30
*967 adder/SPARSETREE0/PGNETWORK/U31
*968 adder/SPARSETREE0/PGNETWORK/U32
*969 adder/SPARSETREE0/n_G1_1_1/U1
*970 adder/SPARSETREE0/n_G1_1_1/U2
*971 adder/SPARSETREE0/m_PG1_1_3/U1
*972 adder/SPARSETREE0/m_PG1_1_3/U2
*973 adder/SPARSETREE0/m_PG1_1_3/U3
*974 adder/SPARSETREE0/m_PG1_1_5/U1
*975 adder/SPARSETREE0/m_PG1_1_5/U2
*976 adder/SPARSETREE0/m_PG1_1_5/U3
*977 adder/SPARSETREE0/m_PG1_1_7/U1
*978 adder/SPARSETREE0/m_PG1_1_7/U2
*979 adder/SPARSETREE0/m_PG1_1_7/U3
*980 adder/SPARSETREE0/m_PG1_1_9/U1
*981 adder/SPARSETREE0/m_PG1_1_9/U2
*982 adder/SPARSETREE0/m_PG1_1_9/U3
*983 adder/SPARSETREE0/m_PG1_1_11/U1
*984 adder/SPARSETREE0/m_PG1_1_11/U2
*985 adder/SPARSETREE0/m_PG1_1_11/U3
*986 adder/SPARSETREE0/m_PG1_1_13/U1
*987 adder/SPARSETREE0/m_PG1_1_13/U2
*988 adder/SPARSETREE0/m_PG1_1_13/U3
*989 adder/SPARSETREE0/m_PG1_1_15/U1
*990 adder/SPARSETREE0/m_PG1_1_15/U2
*991 adder/SPARSETREE0/m_PG1_1_15/U3
*992 adder/SPARSETREE0/m_PG1_1_17/U1
*993 adder/SPARSETREE0/m_PG1_1_17/U2
*994 adder/SPARSETREE0/m_PG1_1_17/U3
*995 adder/SPARSETREE0/m_PG1_1_19/U1
*996 adder/SPARSETREE0/m_PG1_1_19/U2
*997 adder/SPARSETREE0/m_PG1_1_19/U3
*998 adder/SPARSETREE0/m_PG1_1_21/U1
*999 adder/SPARSETREE0/m_PG1_1_21/U2
*1000 adder/SPARSETREE0/m_PG1_1_21/U3
*1001 adder/SPARSETREE0/m_PG1_1_23/U1
*1002 adder/SPARSETREE0/m_PG1_1_23/U2
*1003 adder/SPARSETREE0/m_PG1_1_23/U3
*1004 adder/SPARSETREE0/m_PG1_1_25/U1
*1005 adder/SPARSETREE0/m_PG1_1_25/U2
*1006 adder/SPARSETREE0/m_PG1_1_25/U3
*1007 adder/SPARSETREE0/m_PG1_1_27/U1
*1008 adder/SPARSETREE0/m_PG1_1_27/U2
*1009 adder/SPARSETREE0/m_PG1_1_27/U3
*1010 adder/SPARSETREE0/m_PG1_1_29/U1
*1011 adder/SPARSETREE0/m_PG1_1_29/U2
*1012 adder/SPARSETREE0/m_PG1_1_29/U3
*1013 adder/SPARSETREE0/m_PG1_1_31/U1
*1014 adder/SPARSETREE0/m_PG1_1_31/U2
*1015 adder/SPARSETREE0/m_PG1_1_31/U3
*1016 adder/SPARSETREE0/n_G1_2_3/U1
*1017 adder/SPARSETREE0/n_G1_2_3/U2
*1018 adder/SPARSETREE0/m_PG1_2_7/U1
*1019 adder/SPARSETREE0/m_PG1_2_7/U2
*1020 adder/SPARSETREE0/m_PG1_2_7/U3
*1021 adder/SPARSETREE0/m_PG1_2_11/U1
*1022 adder/SPARSETREE0/m_PG1_2_11/U2
*1023 adder/SPARSETREE0/m_PG1_2_11/U3
*1024 adder/SPARSETREE0/m_PG1_2_15/U1
*1025 adder/SPARSETREE0/m_PG1_2_15/U2
*1026 adder/SPARSETREE0/m_PG1_2_15/U3
*1027 adder/SPARSETREE0/m_PG1_2_19/U1
*1028 adder/SPARSETREE0/m_PG1_2_19/U2
*1029 adder/SPARSETREE0/m_PG1_2_19/U3
*1030 adder/SPARSETREE0/m_PG1_2_23/U1
*1031 adder/SPARSETREE0/m_PG1_2_23/U2
*1032 adder/SPARSETREE0/m_PG1_2_23/U3
*1033 adder/SPARSETREE0/m_PG1_2_27/U1
*1034 adder/SPARSETREE0/m_PG1_2_27/U2
*1035 adder/SPARSETREE0/m_PG1_2_27/U3
*1036 adder/SPARSETREE0/m_PG1_2_31/U1
*1037 adder/SPARSETREE0/m_PG1_2_31/U2
*1038 adder/SPARSETREE0/m_PG1_2_31/U3
*1039 adder/SPARSETREE0/n_G2_3_7/U1
*1040 adder/SPARSETREE0/n_G2_3_7/U2